LTspice 24.1.9 for Windows
Circuit: C:\Users\kutea\OneDrive\Documents\LTspice\Common Source (CS) NMOS Amplifier.net
Start Time: Wed Jun 24 00:32:38 2026
solver = Normal
Maximum thread count: 8
tnom = 27
temp = 27
method = trap
WARNING: Node nc_01 is floating.

Instance "M2": Length shorter than recommended for a level 1 MOSFET.
Instance "M2": Width narrower than recommended for a level 1 MOSFET.
Direct Newton iteration for .op point succeeded.
Total elapsed time: 0.088 seconds.

Files loaded:
C:\Users\kutea\OneDrive\Documents\LTspice\Common Source (CS) NMOS Amplifier.net
C:\Users\kutea\AppData\Local\LTspice\lib\cmp\standard.mos

